-------------------------------------------------------
          Amber 7  SANDER                   Scripps/UCSF 2000
          -------------------------------------------------------

  [-O]verwriting output

File Assignments:

 Here is the input file:

 molecular dynamics, polarizable solute
 $cntrl
  irest  = 1, ntx    = 7,
  ntb    = 2, ntp    = 1,
  nstlim = 50000,
  dt     = 0.002,
  ntpr   = 1000,
  ntt    = 1,
  nsnb   = 5,
  temp0  = 300.,
  cut    =  7.0,
  scee   = 1.2,
  ntf    = 2,
  ntc    = 2,
 $end

-------------------------------------------------------------------------------

 molecular dynamics, polarizable solute

   1.  RESOURCE   USE:

 getting new box info from bottom of inpcrd

   EWALD SPECIFIC INPUT:

     Largest sphere to fit in unit cell has radius =     9.195
     Calculating ew_coeff from dsum_tol,cutoff
     Box X =   18.775   Box Y =   18.390   Box Z =   18.916
     Alpha =   90.000   Beta =   90.000   Gamma =   90.000
     NFFT1 =   18       NFFT2 =   18       NFFT3 =   18
     Cutoff=    7.000   Tol   =0.100E-04
     Ewald Coefficient =  0.40167

     Interpolation order =    4
 NATOM  =     864 NTYPES =       2 NBONH =     648 MBONA  =     216
 NTHETH =       0 MTHETA =       0 NPHIH =       0 MPHIA  =       0
 NHPARM =       0 NPARM  =       0 NNB   =    1512 NRES   =     216
 NBONA  =     216 NTHETA =       0 NPHIA =       0 NUMBND =       3
 NUMANG =       0 NPTRA  =       0 NATYP =       3 NPHB   =       1
 IFBOX  =       1 NMXRS  =       4 IFCAP =       0 NEXTRA =     216

   EWALD MEMORY USE:

   EWALD LOCMEM POINTER OFFSETS

     BOX TYPE: RECTILINEAR

   2.  CONTROL  DATA  FOR  THE  RUN

     TIMLIM=  999999.   IREST =    1       IBELLY=    0
     IMIN  =    0
     IPOL  =    0

     NTX   =    7       NTXO  =    1
     IG    =    71277   TEMPI =     0.00   HEAT  =    0.000

     NTB   =    2       BOXX  =   18.775
     BOXY  =   18.390   BOXZ  =   18.916

     NTT   =    1       TEMP0 =  300.000
     DTEMP =    0.000   TAUTP =    1.000
     VLIMIT=   20.000

     NTP   =    1       PRES0 =    1.000   COMP  =   44.600
     TAUP  =    0.200   NPSCAL=    1

     NSCM  =    1000

     NSTLIM=  50000     NTU   =    1
     T     =    0.000   DT    =   0.00200

     NTC   =    2       TOL   =   0.00001  JFASTW =    0

     NTF   =    2       NSNB  =    5

     CUT   =    7.000   SCNB  =    2.000
     SCEE  =    1.200   DIELC =    1.000

     NTPR  =    1000    NTWR  =     500    NTWX  =       0
     NTWV  =       0    NTWE  =       0    IOUTFM=       0
     NTWPRT=       0    NTAVE =       0

     NTR   =    0       NTRX  =    1
     TAUR  =   0.00000     NMROPT=    0       PENCUT=   0.10000

     IVCAP =    0       MATCAP=    0       FCAP  =    1.500

   OTHER DATA:

     IFCAP =    0       NATCAP=    0       CUTCAP=    0.000
     XCAP  =    0.000   YCAP  =    0.000   ZCAP  =    0.000

     VRAND=    0

     NATOM =     864  NRES =    216

     Water definition for fast triangulated model:
     Resname = WAT ; Oxygen_name = O   ; Hyd1_name = H1  ; Hyd2_name = H2

   3.  ATOMIC COORDINATES AND VELOCITIES

     Largest sphere to fit in unit cell has radius =     9.195
 NEW EWALD BOX PARAMETERS from inpcrd file:
     A     =  18.77485  B    =  18.38996  C     =  18.91557

     ALPHA =  90.00000  BETA =  90.00000  GAMMA =  90.00000

 begin time read from input coords =   100.000 ps

 Number of triangulated 3-point waters found:      216

     Sum of charges from parm topology file =   0.00000000
     Forcing neutrality...
 ---------------------------------------------------
 APPROXIMATING switch and d/dx switch using CUBIC SPLINE INTERPOLATION
 using   5000.0 points per unit in tabled values
 TESTING RELATIVE ERROR over r ranging from 0.0 to cutoff
 ---------------------------------------------------
     Total number of mask terms =       1296
     Total number of mask terms =       2592
check COM velocity, temp:        0.000000     0.00(Removed)

 NSTEP =   1000 TIME(PS) =   102.000  TEMP(K) =   242.35  PRESS =  -596.5
 Etot   =   -2050.3277  EKtot   =     311.3468  EPtot      =   -2361.6745
 BOND   =       0.0000  ANGLE   =       0.0000  DIHED      =       0.0000
 1-4 NB =       0.0000  1-4 EEL =       0.0000  VDWAALS    =     474.7488
 EELEC  =   -2836.4233  EHBOND  =       0.0000  CONSTRAINT =       0.0000
 EKCMT  =     155.9915  VIRIAL  =     240.9708  VOLUME     =    6598.5596
                                                Density    =       0.9793
 Ewald error estimate:   0.7679E-03
 ------------------------------------------------------------------------------

check COM velocity, temp:        0.000000     0.00(Removed)

 NSTEP =   2000 TIME(PS) =   104.000  TEMP(K) =   264.78  PRESS =    87.9
 Etot   =   -1957.8372  EKtot   =     340.1640  EPtot      =   -2298.0011
 BOND   =       0.0000  ANGLE   =       0.0000  DIHED      =       0.0000
 1-4 NB =       0.0000  1-4 EEL =       0.0000  VDWAALS    =     462.0663
 EELEC  =   -2760.0674  EHBOND  =       0.0000  CONSTRAINT =       0.0000
 EKCMT  =     173.2738  VIRIAL  =     160.7670  VOLUME     =    6592.9731
                                                Density    =       0.9801
 Ewald error estimate:   0.5263E-03
 ------------------------------------------------------------------------------

check COM velocity, temp:        0.000000     0.00(Removed)

 NSTEP =   3000 TIME(PS) =   106.000  TEMP(K) =   282.83  PRESS =  -733.5
 Etot   =   -1902.1685  EKtot   =     363.3620  EPtot      =   -2265.5306
 BOND   =       0.0000  ANGLE   =       0.0000  DIHED      =       0.0000
 1-4 NB =       0.0000  1-4 EEL =       0.0000  VDWAALS    =     419.5124
 EELEC  =   -2685.0430  EHBOND  =       0.0000  CONSTRAINT =       0.0000
 EKCMT  =     192.8088  VIRIAL  =     298.1354  VOLUME     =    6650.2462
                                                Density    =       0.9717
 Ewald error estimate:   0.1312E-03
 ------------------------------------------------------------------------------

check COM velocity, temp:        0.000000     0.00(Removed)

 NSTEP =   4000 TIME(PS) =   108.000  TEMP(K) =   287.85  PRESS =  -586.4
 Etot   =   -1851.9191  EKtot   =     369.8071  EPtot      =   -2221.7262
 BOND   =       0.0000  ANGLE   =       0.0000  DIHED      =       0.0000
 1-4 NB =       0.0000  1-4 EEL =       0.0000  VDWAALS    =     405.7437
 EELEC  =   -2627.4699  EHBOND  =       0.0000  CONSTRAINT =       0.0000
 EKCMT  =     181.7321  VIRIAL  =     264.4865  VOLUME     =    6536.4784
                                                Density    =       0.9886
 Ewald error estimate:   0.4026E-03
 ------------------------------------------------------------------------------

check COM velocity, temp:        0.000000     0.00(Removed)

 NSTEP =   5000 TIME(PS) =   110.000  TEMP(K) =   275.13  PRESS =   221.2
 Etot   =   -1818.0151  EKtot   =     353.4694  EPtot      =   -2171.4845
 BOND   =       0.0000  ANGLE   =       0.0000  DIHED      =       0.0000
 1-4 NB =       0.0000  1-4 EEL =       0.0000  VDWAALS    =     405.0674
 EELEC  =   -2576.5519  EHBOND  =       0.0000  CONSTRAINT =       0.0000
 EKCMT  =     173.0619  VIRIAL  =     141.8681  VOLUME     =    6530.7941
                                                Density    =       0.9895
 Ewald error estimate:   0.8476E-04
 ------------------------------------------------------------------------------

check COM velocity, temp:        0.000000     0.00(Removed)

 NSTEP =   6000 TIME(PS) =   112.000  TEMP(K) =   284.64  PRESS =  -806.9
 Etot   =   -1791.1965  EKtot   =     365.6856  EPtot      =   -2156.8821
 BOND   =       0.0000  ANGLE   =       0.0000  DIHED      =       0.0000
 1-4 NB =       0.0000  1-4 EEL =       0.0000  VDWAALS    =     360.6023
 EELEC  =   -2517.4844  EHBOND  =       0.0000  CONSTRAINT =       0.0000
 EKCMT  =     184.2041  VIRIAL  =     297.1424  VOLUME     =    6482.5643
                                                Density    =       0.9968
 Ewald error estimate:   0.2819E-03
 ------------------------------------------------------------------------------

check COM velocity, temp:        0.000000     0.00(Removed)

 NSTEP =   7000 TIME(PS) =   114.000  TEMP(K) =   301.07  PRESS =  -208.4
 Etot   =   -1775.1301  EKtot   =     386.7865  EPtot      =   -2161.9166
 BOND   =       0.0000  ANGLE   =       0.0000  DIHED      =       0.0000
 1-4 NB =       0.0000  1-4 EEL =       0.0000  VDWAALS    =     379.8271
 EELEC  =   -2541.7438  EHBOND  =       0.0000  CONSTRAINT =       0.0000
 EKCMT  =     190.4455  VIRIAL  =     219.7205  VOLUME     =    6505.2122
                                                Density    =       0.9934
 Ewald error estimate:   0.1055E-02
 ------------------------------------------------------------------------------

check COM velocity, temp:        0.000000     0.00(Removed)

 NSTEP =   8000 TIME(PS) =   116.000  TEMP(K) =   288.80  PRESS =   850.3
 Etot   =   -1766.9755  EKtot   =     371.0298  EPtot      =   -2138.0053
 BOND   =       0.0000  ANGLE   =       0.0000  DIHED      =       0.0000
 1-4 NB =       0.0000  1-4 EEL =       0.0000  VDWAALS    =     409.5342
 EELEC  =   -2547.5395  EHBOND  =       0.0000  CONSTRAINT =       0.0000
 EKCMT  =     189.8289  VIRIAL  =      71.0485  VOLUME     =    6469.4935
                                                Density    =       0.9988
 Ewald error estimate:   0.1342E-02
 ------------------------------------------------------------------------------

check COM velocity, temp:        0.000000     0.00(Removed)

 NSTEP =   9000 TIME(PS) =   118.000  TEMP(K) =   291.82  PRESS =   282.7
 Etot   =   -1762.0443  EKtot   =     374.9054  EPtot      =   -2136.9496
 BOND   =       0.0000  ANGLE   =       0.0000  DIHED      =       0.0000
 1-4 NB =       0.0000  1-4 EEL =       0.0000  VDWAALS    =     384.3737
 EELEC  =   -2521.3234  EHBOND  =       0.0000  CONSTRAINT =       0.0000
 EKCMT  =     191.1784  VIRIAL  =     151.9994  VOLUME     =    6419.3419
                                                Density    =       1.0066
 Ewald error estimate:   0.3891E-04
 ------------------------------------------------------------------------------

check COM velocity, temp:        0.000000     0.00(Removed)

 NSTEP =  10000 TIME(PS) =   120.000  TEMP(K) =   310.96  PRESS =  -744.2
 Etot   =   -1753.5139  EKtot   =     399.4943  EPtot      =   -2153.0082
 BOND   =       0.0000  ANGLE   =       0.0000  DIHED      =       0.0000
 1-4 NB =       0.0000  1-4 EEL =       0.0000  VDWAALS    =     371.9444
 EELEC  =   -2524.9526  EHBOND  =       0.0000  CONSTRAINT =       0.0000
 EKCMT  =     193.1109  VIRIAL  =     298.7234  VOLUME     =    6572.9725
                                                Density    =       0.9831
 Ewald error estimate:   0.8517E-04
 ------------------------------------------------------------------------------

check COM velocity, temp:        0.000000     0.00(Removed)

 NSTEP =  11000 TIME(PS) =   122.000  TEMP(K) =   304.84  PRESS =  -215.8
 Etot   =   -1753.2899  EKtot   =     391.6391  EPtot      =   -2144.9290
 BOND   =       0.0000  ANGLE   =       0.0000  DIHED      =       0.0000
 1-4 NB =       0.0000  1-4 EEL =       0.0000  VDWAALS    =     370.6358
 EELEC  =   -2515.5649  EHBOND  =       0.0000  CONSTRAINT =       0.0000
 EKCMT  =     214.2459  VIRIAL  =     244.7042  VOLUME     =    6536.7683
                                                Density    =       0.9886
 Ewald error estimate:   0.1284E-02
 ------------------------------------------------------------------------------

check COM velocity, temp:        0.000000     0.00(Removed)

 NSTEP =  12000 TIME(PS) =   124.000  TEMP(K) =   302.78  PRESS =  -629.4
 Etot   =   -1751.7199  EKtot   =     388.9911  EPtot      =   -2140.7110
 BOND   =       0.0000  ANGLE   =       0.0000  DIHED      =       0.0000
 1-4 NB =       0.0000  1-4 EEL =       0.0000  VDWAALS    =     355.0526
 EELEC  =   -2495.7636  EHBOND  =       0.0000  CONSTRAINT =       0.0000
 EKCMT  =     191.3849  VIRIAL  =     278.5372  VOLUME     =    6412.9270
                                                Density    =       1.0077
 Ewald error estimate:   0.4480E-03
 ------------------------------------------------------------------------------

check COM velocity, temp:        0.000000     0.00(Removed)

 NSTEP =  13000 TIME(PS) =   126.000  TEMP(K) =   293.10  PRESS =   458.6
 Etot   =   -1754.7343  EKtot   =     376.5451  EPtot      =   -2131.2794
 BOND   =       0.0000  ANGLE   =       0.0000  DIHED      =       0.0000
 1-4 NB =       0.0000  1-4 EEL =       0.0000  VDWAALS    =     375.1462
 EELEC  =   -2506.4256  EHBOND  =       0.0000  CONSTRAINT =       0.0000
 EKCMT  =     197.2860  VIRIAL  =     134.5325  VOLUME     =    6336.9847
                                                Density    =       1.0197
 Ewald error estimate:   0.5872E-03
 ------------------------------------------------------------------------------

check COM velocity, temp:        0.000000     0.00(Removed)

 NSTEP =  14000 TIME(PS) =   128.000  TEMP(K) =   297.91  PRESS =  -229.9
 Etot   =   -1750.7619  EKtot   =     382.7271  EPtot      =   -2133.4890
 BOND   =       0.0000  ANGLE   =       0.0000  DIHED      =       0.0000
 1-4 NB =       0.0000  1-4 EEL =       0.0000  VDWAALS    =     364.5800
 EELEC  =   -2498.0690  EHBOND  =       0.0000  CONSTRAINT =       0.0000
 EKCMT  =     201.7914  VIRIAL  =     234.3089  VOLUME     =    6551.1384
                                                Density    =       0.9864
 Ewald error estimate:   0.2809E-03
 ------------------------------------------------------------------------------

check COM velocity, temp:        0.000000     0.00(Removed)

 NSTEP =  15000 TIME(PS) =   130.000  TEMP(K) =   301.35  PRESS =     3.1
 Etot   =   -1745.3335  EKtot   =     387.1444  EPtot      =   -2132.4779
 BOND   =       0.0000  ANGLE   =       0.0000  DIHED      =       0.0000
 1-4 NB =       0.0000  1-4 EEL =       0.0000  VDWAALS    =     390.7410
 EELEC  =   -2523.2189  EHBOND  =       0.0000  CONSTRAINT =       0.0000
 EKCMT  =     199.3682  VIRIAL  =     198.9253  VOLUME     =    6678.3311
                                                Density    =       0.9676
 Ewald error estimate:   0.5437E-03
 ------------------------------------------------------------------------------

check COM velocity, temp:        0.000000     0.00(Removed)

 NSTEP =  16000 TIME(PS) =   132.000  TEMP(K) =   295.09  PRESS =  1348.5
 Etot   =   -1741.6536  EKtot   =     379.1026  EPtot      =   -2120.7562
 BOND   =       0.0000  ANGLE   =       0.0000  DIHED      =       0.0000
 1-4 NB =       0.0000  1-4 EEL =       0.0000  VDWAALS    =     405.5278
 EELEC  =   -2526.2840  EHBOND  =       0.0000  CONSTRAINT =       0.0000
 EKCMT  =     190.3077  VIRIAL  =       2.6899  VOLUME     =    6443.6541
                                                Density    =       1.0029
 Ewald error estimate:   0.2182E-03
 ------------------------------------------------------------------------------

check COM velocity, temp:        0.000000     0.00(Removed)

 NSTEP =  17000 TIME(PS) =   134.000  TEMP(K) =   292.87  PRESS =  -207.9
 Etot   =   -1750.1231  EKtot   =     376.2516  EPtot      =   -2126.3748
 BOND   =       0.0000  ANGLE   =       0.0000  DIHED      =       0.0000
 1-4 NB =       0.0000  1-4 EEL =       0.0000  VDWAALS    =     358.0543
 EELEC  =   -2484.4291  EHBOND  =       0.0000  CONSTRAINT =       0.0000
 EKCMT  =     199.8393  VIRIAL  =     228.3430  VOLUME     =    6351.0001
                                                Density    =       1.0175
 Ewald error estimate:   0.1468E-02
 ------------------------------------------------------------------------------

check COM velocity, temp:        0.000000     0.00(Removed)

 NSTEP =  18000 TIME(PS) =   136.000  TEMP(K) =   299.69  PRESS =  -698.2
 Etot   =   -1756.8352  EKtot   =     385.0129  EPtot      =   -2141.8481
 BOND   =       0.0000  ANGLE   =       0.0000  DIHED      =       0.0000
 1-4 NB =       0.0000  1-4 EEL =       0.0000  VDWAALS    =     352.7560
 EELEC  =   -2494.6041  EHBOND  =       0.0000  CONSTRAINT =       0.0000
 EKCMT  =     203.0674  VIRIAL  =     299.7584  VOLUME     =    6413.8255
                                                Density    =       1.0075
 Ewald error estimate:   0.6532E-03
 ------------------------------------------------------------------------------

check COM velocity, temp:        0.000000     0.00(Removed)

 NSTEP =  19000 TIME(PS) =   138.000  TEMP(K) =   309.97  PRESS =  -153.4
 Etot   =   -1755.7207  EKtot   =     398.2185  EPtot      =   -2153.9392
 BOND   =       0.0000  ANGLE   =       0.0000  DIHED      =       0.0000
 1-4 NB =       0.0000  1-4 EEL =       0.0000  VDWAALS    =     377.7153
 EELEC  =   -2531.6544  EHBOND  =       0.0000  CONSTRAINT =       0.0000
 EKCMT  =     213.2551  VIRIAL  =     234.8649  VOLUME     =    6526.2075
                                                Density    =       0.9902
 Ewald error estimate:   0.8725E-03
 ------------------------------------------------------------------------------

check COM velocity, temp:        0.000000     0.00(Removed)

 NSTEP =  20000 TIME(PS) =   140.000  TEMP(K) =   298.25  PRESS =   453.4
 Etot   =   -1755.3699  EKtot   =     383.1688  EPtot      =   -2138.5387
 BOND   =       0.0000  ANGLE   =       0.0000  DIHED      =       0.0000
 1-4 NB =       0.0000  1-4 EEL =       0.0000  VDWAALS    =     389.2989
 EELEC  =   -2527.8376  EHBOND  =       0.0000  CONSTRAINT =       0.0000
 EKCMT  =     191.2864  VIRIAL  =     128.8923  VOLUME     =    6374.1621
                                                Density    =       1.0138
 Ewald error estimate:   0.7123E-03
 ------------------------------------------------------------------------------

check COM velocity, temp:        0.000000     0.00(Removed)

 NSTEP =  21000 TIME(PS) =   142.000  TEMP(K) =   294.13  PRESS =   802.5
 Etot   =   -1760.5897  EKtot   =     377.8720  EPtot      =   -2138.4617
 BOND   =       0.0000  ANGLE   =       0.0000  DIHED      =       0.0000
 1-4 NB =       0.0000  1-4 EEL =       0.0000  VDWAALS    =     397.4714
 EELEC  =   -2535.9330  EHBOND  =       0.0000  CONSTRAINT =       0.0000
 EKCMT  =     183.0678  VIRIAL  =      72.6269  VOLUME     =    6374.2447
                                                Density    =       1.0138
 Ewald error estimate:   0.5950E-03
 ------------------------------------------------------------------------------

check COM velocity, temp:        0.000000     0.00(Removed)

 NSTEP =  22000 TIME(PS) =   144.000  TEMP(K) =   284.92  PRESS =   197.2
 Etot   =   -1752.5331  EKtot   =     366.0437  EPtot      =   -2118.5768
 BOND   =       0.0000  ANGLE   =       0.0000  DIHED      =       0.0000
 1-4 NB =       0.0000  1-4 EEL =       0.0000  VDWAALS    =     385.0400
 EELEC  =   -2503.6168  EHBOND  =       0.0000  CONSTRAINT =       0.0000
 EKCMT  =     185.3118  VIRIAL  =     157.2035  VOLUME     =    6600.1085
                                                Density    =       0.9791
 Ewald error estimate:   0.6092E-03
 ------------------------------------------------------------------------------

check COM velocity, temp:        0.000000     0.00(Removed)

 NSTEP =  23000 TIME(PS) =   146.000  TEMP(K) =   273.32  PRESS =   362.4
 Etot   =   -1757.6754  EKtot   =     351.1409  EPtot      =   -2108.8163
 BOND   =       0.0000  ANGLE   =       0.0000  DIHED      =       0.0000
 1-4 NB =       0.0000  1-4 EEL =       0.0000  VDWAALS    =     394.4311
 EELEC  =   -2503.2473  EHBOND  =       0.0000  CONSTRAINT =       0.0000
 EKCMT  =     163.6015  VIRIAL  =     111.7907  VOLUME     =    6620.7637
                                                Density    =       0.9760
 Ewald error estimate:   0.1988E-03
 ------------------------------------------------------------------------------

check COM velocity, temp:        0.000000     0.00(Removed)

 NSTEP =  24000 TIME(PS) =   148.000  TEMP(K) =   303.22  PRESS =    67.9
 Etot   =   -1767.3372  EKtot   =     389.5546  EPtot      =   -2156.8919
 BOND   =       0.0000  ANGLE   =       0.0000  DIHED      =       0.0000
 1-4 NB =       0.0000  1-4 EEL =       0.0000  VDWAALS    =     393.3145
 EELEC  =   -2550.2064  EHBOND  =       0.0000  CONSTRAINT =       0.0000
 EKCMT  =     199.8853  VIRIAL  =     190.2638  VOLUME     =    6567.0932
                                                Density    =       0.9840
 Ewald error estimate:   0.2702E-03
 ------------------------------------------------------------------------------

check COM velocity, temp:        0.000000     0.00(Removed)

 NSTEP =  25000 TIME(PS) =   150.000  TEMP(K) =   295.45  PRESS =  -489.4
 Etot   =   -1767.9063  EKtot   =     379.5662  EPtot      =   -2147.4725
 BOND   =       0.0000  ANGLE   =       0.0000  DIHED      =       0.0000
 1-4 NB =       0.0000  1-4 EEL =       0.0000  VDWAALS    =     371.6584
 EELEC  =   -2519.1309  EHBOND  =       0.0000  CONSTRAINT =       0.0000
 EKCMT  =     185.2236  VIRIAL  =     253.2165  VOLUME     =    6434.4226
                                                Density    =       1.0043
 Ewald error estimate:   0.2559E-03
 ------------------------------------------------------------------------------

check COM velocity, temp:        0.000000     0.00(Removed)

 NSTEP =  26000 TIME(PS) =   152.000  TEMP(K) =   289.93  PRESS =  -868.6
 Etot   =   -1765.9561  EKtot   =     372.4750  EPtot      =   -2138.4311
 BOND   =       0.0000  ANGLE   =       0.0000  DIHED      =       0.0000
 1-4 NB =       0.0000  1-4 EEL =       0.0000  VDWAALS    =     348.4949
 EELEC  =   -2486.9260  EHBOND  =       0.0000  CONSTRAINT =       0.0000
 EKCMT  =     197.5386  VIRIAL  =     319.1260  VOLUME     =    6483.1858
                                                Density    =       0.9967
 Ewald error estimate:   0.2937E-03
 ------------------------------------------------------------------------------

check COM velocity, temp:        0.000000     0.00(Removed)

 NSTEP =  27000 TIME(PS) =   154.000  TEMP(K) =   298.45  PRESS =   426.8
 Etot   =   -1759.3497  EKtot   =     383.4301  EPtot      =   -2142.7799
 BOND   =       0.0000  ANGLE   =       0.0000  DIHED      =       0.0000
 1-4 NB =       0.0000  1-4 EEL =       0.0000  VDWAALS    =     402.7449
 EELEC  =   -2545.5247  EHBOND  =       0.0000  CONSTRAINT =       0.0000
 EKCMT  =     200.6395  VIRIAL  =     139.7015  VOLUME     =    6612.7544
                                                Density    =       0.9772
 Ewald error estimate:   0.9332E-03
 ------------------------------------------------------------------------------

check COM velocity, temp:        0.000000     0.00(Removed)

 NSTEP =  28000 TIME(PS) =   156.000  TEMP(K) =   306.06  PRESS =    60.8
 Etot   =   -1758.3872  EKtot   =     393.1952  EPtot      =   -2151.5825
 BOND   =       0.0000  ANGLE   =       0.0000  DIHED      =       0.0000
 1-4 NB =       0.0000  1-4 EEL =       0.0000  VDWAALS    =     384.5326
 EELEC  =   -2536.1151  EHBOND  =       0.0000  CONSTRAINT =       0.0000
 EKCMT  =     199.2425  VIRIAL  =     190.6401  VOLUME     =    6551.0397
                                                Density    =       0.9864
 Ewald error estimate:   0.6527E-03
 ------------------------------------------------------------------------------

check COM velocity, temp:        0.000000     0.00(Removed)

 NSTEP =  29000 TIME(PS) =   158.000  TEMP(K) =   296.53  PRESS =    32.8
 Etot   =   -1759.2267  EKtot   =     380.9550  EPtot      =   -2140.1817
 BOND   =       0.0000  ANGLE   =       0.0000  DIHED      =       0.0000
 1-4 NB =       0.0000  1-4 EEL =       0.0000  VDWAALS    =     384.2153
 EELEC  =   -2524.3970  EHBOND  =       0.0000  CONSTRAINT =       0.0000
 EKCMT  =     192.1512  VIRIAL  =     187.5471  VOLUME     =    6501.3994
                                                Density    =       0.9939
 Ewald error estimate:   0.4409E-03
 ------------------------------------------------------------------------------

check COM velocity, temp:        0.000000     0.00(Removed)

 NSTEP =  30000 TIME(PS) =   160.000  TEMP(K) =   302.84  PRESS =  -190.0
 Etot   =   -1756.8787  EKtot   =     389.0650  EPtot      =   -2145.9436
 BOND   =       0.0000  ANGLE   =       0.0000  DIHED      =       0.0000
 1-4 NB =       0.0000  1-4 EEL =       0.0000  VDWAALS    =     371.1045
 EELEC  =   -2517.0481  EHBOND  =       0.0000  CONSTRAINT =       0.0000
 EKCMT  =     191.7626  VIRIAL  =     218.3685  VOLUME     =    6486.3598
                                                Density    =       0.9962
 Ewald error estimate:   0.5889E-03
 ------------------------------------------------------------------------------

check COM velocity, temp:        0.000000     0.00(Removed)

 NSTEP =  31000 TIME(PS) =   162.000  TEMP(K) =   299.05  PRESS =    84.0
 Etot   =   -1755.8279  EKtot   =     384.1938  EPtot      =   -2140.0217
 BOND   =       0.0000  ANGLE   =       0.0000  DIHED      =       0.0000
 1-4 NB =       0.0000  1-4 EEL =       0.0000  VDWAALS    =     383.1579
 EELEC  =   -2523.1796  EHBOND  =       0.0000  CONSTRAINT =       0.0000
 EKCMT  =     202.7645  VIRIAL  =     190.8176  VOLUME     =    6583.6819
                                                Density    =       0.9815
 Ewald error estimate:   0.1560E-03
 ------------------------------------------------------------------------------

check COM velocity, temp:        0.000000     0.00(Removed)

 NSTEP =  32000 TIME(PS) =   164.000  TEMP(K) =   311.45  PRESS =  -564.0
 Etot   =   -1764.4502  EKtot   =     400.1202  EPtot      =   -2164.5705
 BOND   =       0.0000  ANGLE   =       0.0000  DIHED      =       0.0000
 1-4 NB =       0.0000  1-4 EEL =       0.0000  VDWAALS    =     371.7106
 EELEC  =   -2536.2810  EHBOND  =       0.0000  CONSTRAINT =       0.0000
 EKCMT  =     212.1873  VIRIAL  =     291.2414  VOLUME     =    6492.4038
                                                Density    =       0.9953
 Ewald error estimate:   0.1132E-02
 ------------------------------------------------------------------------------

check COM velocity, temp:        0.000000     0.00(Removed)

 NSTEP =  33000 TIME(PS) =   166.000  TEMP(K) =   309.76  PRESS =  -226.7
 Etot   =   -1769.5918  EKtot   =     397.9572  EPtot      =   -2167.5490
 BOND   =       0.0000  ANGLE   =       0.0000  DIHED      =       0.0000
 1-4 NB =       0.0000  1-4 EEL =       0.0000  VDWAALS    =     381.9543
 EELEC  =   -2549.5032  EHBOND  =       0.0000  CONSTRAINT =       0.0000
 EKCMT  =     193.6988  VIRIAL  =     225.4973  VOLUME     =    6497.2400
                                                Density    =       0.9946
 Ewald error estimate:   0.8752E-04
 ------------------------------------------------------------------------------

check COM velocity, temp:        0.000000     0.00(Removed)

 NSTEP =  34000 TIME(PS) =   168.000  TEMP(K) =   295.10  PRESS =   462.8
 Etot   =   -1774.8381  EKtot   =     379.1204  EPtot      =   -2153.9585
 BOND   =       0.0000  ANGLE   =       0.0000  DIHED      =       0.0000
 1-4 NB =       0.0000  1-4 EEL =       0.0000  VDWAALS    =     396.0754
 EELEC  =   -2550.0339  EHBOND  =       0.0000  CONSTRAINT =       0.0000
 EKCMT  =     187.4848  VIRIAL  =     122.7220  VOLUME     =    6480.6295
                                                Density    =       0.9971
 Ewald error estimate:   0.9960E-03
 ------------------------------------------------------------------------------

check COM velocity, temp:        0.000000     0.00(Removed)

 NSTEP =  35000 TIME(PS) =   170.000  TEMP(K) =   298.94  PRESS =   -98.3
 Etot   =   -1768.3590  EKtot   =     384.0539  EPtot      =   -2152.4129
 BOND   =       0.0000  ANGLE   =       0.0000  DIHED      =       0.0000
 1-4 NB =       0.0000  1-4 EEL =       0.0000  VDWAALS    =     378.8389
 EELEC  =   -2531.2518  EHBOND  =       0.0000  CONSTRAINT =       0.0000
 EKCMT  =     192.5420  VIRIAL  =     206.1935  VOLUME     =    6430.7426
                                                Density    =       1.0049
 Ewald error estimate:   0.7147E-03
 ------------------------------------------------------------------------------

check COM velocity, temp:        0.000000     0.00(Removed)

 NSTEP =  36000 TIME(PS) =   172.000  TEMP(K) =   312.34  PRESS =  -909.8
 Etot   =   -1770.3633  EKtot   =     401.2710  EPtot      =   -2171.6342
 BOND   =       0.0000  ANGLE   =       0.0000  DIHED      =       0.0000
 1-4 NB =       0.0000  1-4 EEL =       0.0000  VDWAALS    =     349.3352
 EELEC  =   -2520.9694  EHBOND  =       0.0000  CONSTRAINT =       0.0000
 EKCMT  =     197.3845  VIRIAL  =     321.3820  VOLUME     =    6312.5276
                                                Density    =       1.0237
 Ewald error estimate:   0.2156E-03
 ------------------------------------------------------------------------------

check COM velocity, temp:        0.000000     0.00(Removed)

 NSTEP =  37000 TIME(PS) =   174.000  TEMP(K) =   303.04  PRESS =  -265.7
 Etot   =   -1767.2275  EKtot   =     389.3227  EPtot      =   -2156.5502
 BOND   =       0.0000  ANGLE   =       0.0000  DIHED      =       0.0000
 1-4 NB =       0.0000  1-4 EEL =       0.0000  VDWAALS    =     371.7040
 EELEC  =   -2528.2542  EHBOND  =       0.0000  CONSTRAINT =       0.0000
 EKCMT  =     200.0672  VIRIAL  =     237.0439  VOLUME     =    6446.1495
                                                Density    =       1.0025
 Ewald error estimate:   0.1685E-03
 ------------------------------------------------------------------------------

check COM velocity, temp:        0.000000     0.00(Removed)

 NSTEP =  38000 TIME(PS) =   176.000  TEMP(K) =   291.56  PRESS =   -83.4
 Etot   =   -1754.6267  EKtot   =     374.5724  EPtot      =   -2129.1992
 BOND   =       0.0000  ANGLE   =       0.0000  DIHED      =       0.0000
 1-4 NB =       0.0000  1-4 EEL =       0.0000  VDWAALS    =     372.8335
 EELEC  =   -2502.0326  EHBOND  =       0.0000  CONSTRAINT =       0.0000
 EKCMT  =     184.0984  VIRIAL  =     195.7411  VOLUME     =    6467.7962
                                                Density    =       0.9991
 Ewald error estimate:   0.2734E-03
 ------------------------------------------------------------------------------

check COM velocity, temp:        0.000000     0.00(Removed)

 NSTEP =  39000 TIME(PS) =   178.000  TEMP(K) =   306.89  PRESS =    64.7
 Etot   =   -1758.6965  EKtot   =     394.2663  EPtot      =   -2152.9628
 BOND   =       0.0000  ANGLE   =       0.0000  DIHED      =       0.0000
 1-4 NB =       0.0000  1-4 EEL =       0.0000  VDWAALS    =     375.8772
 EELEC  =   -2528.8399  EHBOND  =       0.0000  CONSTRAINT =       0.0000
 EKCMT  =     195.6303  VIRIAL  =     186.7368  VOLUME     =    6367.6087
                                                Density    =       1.0148
 Ewald error estimate:   0.2787E-03
 ------------------------------------------------------------------------------

check COM velocity, temp:        0.000000     0.00(Removed)

 NSTEP =  40000 TIME(PS) =   180.000  TEMP(K) =   297.83  PRESS =  -214.4
 Etot   =   -1755.4529  EKtot   =     382.6325  EPtot      =   -2138.0854
 BOND   =       0.0000  ANGLE   =       0.0000  DIHED      =       0.0000
 1-4 NB =       0.0000  1-4 EEL =       0.0000  VDWAALS    =     354.9770
 EELEC  =   -2493.0624  EHBOND  =       0.0000  CONSTRAINT =       0.0000
 EKCMT  =     196.2865  VIRIAL  =     225.6785  VOLUME     =    6348.8806
                                                Density    =       1.0178
 Ewald error estimate:   0.5635E-03
 ------------------------------------------------------------------------------

check COM velocity, temp:        0.000000     0.00(Removed)

 NSTEP =  41000 TIME(PS) =   182.000  TEMP(K) =   297.39  PRESS =  -550.5
 Etot   =   -1755.0485  EKtot   =     382.0565  EPtot      =   -2137.1051
 BOND   =       0.0000  ANGLE   =       0.0000  DIHED      =       0.0000
 1-4 NB =       0.0000  1-4 EEL =       0.0000  VDWAALS    =     365.6911
 EELEC  =   -2502.7961  EHBOND  =       0.0000  CONSTRAINT =       0.0000
 EKCMT  =     198.3024  VIRIAL  =     276.4948  VOLUME     =    6578.8713
                                                Density    =       0.9822
 Ewald error estimate:   0.1855E-03
 ------------------------------------------------------------------------------

check COM velocity, temp:        0.000000     0.00(Removed)

 NSTEP =  42000 TIME(PS) =   184.000  TEMP(K) =   300.34  PRESS =  -300.7
 Etot   =   -1759.4224  EKtot   =     385.8545  EPtot      =   -2145.2769
 BOND   =       0.0000  ANGLE   =       0.0000  DIHED      =       0.0000
 1-4 NB =       0.0000  1-4 EEL =       0.0000  VDWAALS    =     374.1387
 EELEC  =   -2519.4157  EHBOND  =       0.0000  CONSTRAINT =       0.0000
 EKCMT  =     197.1088  VIRIAL  =     239.6772  VOLUME     =    6556.5027
                                                Density    =       0.9856
 Ewald error estimate:   0.6826E-04
 ------------------------------------------------------------------------------

check COM velocity, temp:        0.000000     0.00(Removed)

 NSTEP =  43000 TIME(PS) =   186.000  TEMP(K) =   301.94  PRESS =   427.6
 Etot   =   -1761.2766  EKtot   =     387.9135  EPtot      =   -2149.1901
 BOND   =       0.0000  ANGLE   =       0.0000  DIHED      =       0.0000
 1-4 NB =       0.0000  1-4 EEL =       0.0000  VDWAALS    =     396.5345
 EELEC  =   -2545.7246  EHBOND  =       0.0000  CONSTRAINT =       0.0000
 EKCMT  =     190.6029  VIRIAL  =     130.4424  VOLUME     =    6515.6351
                                                Density    =       0.9918
 Ewald error estimate:   0.5102E-03
 ------------------------------------------------------------------------------

check COM velocity, temp:        0.000000     0.00(Removed)

 NSTEP =  44000 TIME(PS) =   188.000  TEMP(K) =   295.72  PRESS =  -363.3
 Etot   =   -1757.5333  EKtot   =     379.9224  EPtot      =   -2137.4558
 BOND   =       0.0000  ANGLE   =       0.0000  DIHED      =       0.0000
 1-4 NB =       0.0000  1-4 EEL =       0.0000  VDWAALS    =     389.7506
 EELEC  =   -2527.2064  EHBOND  =       0.0000  CONSTRAINT =       0.0000
 EKCMT  =     172.9683  VIRIAL  =     225.4375  VOLUME     =    6689.4412
                                                Density    =       0.9660
 Ewald error estimate:   0.1037E-02
 ------------------------------------------------------------------------------

check COM velocity, temp:        0.000000     0.00(Removed)

 NSTEP =  45000 TIME(PS) =   190.000  TEMP(K) =   306.73  PRESS =  -657.2
 Etot   =   -1750.6294  EKtot   =     394.0616  EPtot      =   -2144.6910
 BOND   =       0.0000  ANGLE   =       0.0000  DIHED      =       0.0000
 1-4 NB =       0.0000  1-4 EEL =       0.0000  VDWAALS    =     363.6511
 EELEC  =   -2508.3421  EHBOND  =       0.0000  CONSTRAINT =       0.0000
 EKCMT  =     206.8098  VIRIAL  =     300.5500  VOLUME     =    6605.8577
                                                Density    =       0.9782
 Ewald error estimate:   0.1163E-02
 ------------------------------------------------------------------------------

check COM velocity, temp:        0.000000     0.00(Removed)

 NSTEP =  46000 TIME(PS) =   192.000  TEMP(K) =   308.43  PRESS =  -114.1
 Etot   =   -1748.5412  EKtot   =     396.2470  EPtot      =   -2144.7882
 BOND   =       0.0000  ANGLE   =       0.0000  DIHED      =       0.0000
 1-4 NB =       0.0000  1-4 EEL =       0.0000  VDWAALS    =     381.1057
 EELEC  =   -2525.8938  EHBOND  =       0.0000  CONSTRAINT =       0.0000
 EKCMT  =     198.6302  VIRIAL  =     214.8133  VOLUME     =    6568.4542
                                                Density    =       0.9838
 Ewald error estimate:   0.1970E-03
 ------------------------------------------------------------------------------

check COM velocity, temp:        0.000000     0.00(Removed)

 NSTEP =  47000 TIME(PS) =   194.000  TEMP(K) =   290.72  PRESS =  -621.3
 Etot   =   -1756.6968  EKtot   =     373.4963  EPtot      =   -2130.1931
 BOND   =       0.0000  ANGLE   =       0.0000  DIHED      =       0.0000
 1-4 NB =       0.0000  1-4 EEL =       0.0000  VDWAALS    =     375.4190
 EELEC  =   -2505.6121  EHBOND  =       0.0000  CONSTRAINT =       0.0000
 EKCMT  =     187.9411  VIRIAL  =     277.1581  VOLUME     =    6651.0514
                                                Density    =       0.9716
 Ewald error estimate:   0.8008E-03
 ------------------------------------------------------------------------------

check COM velocity, temp:        0.000000     0.00(Removed)

 NSTEP =  48000 TIME(PS) =   196.000  TEMP(K) =   294.78  PRESS =  -245.6
 Etot   =   -1760.2765  EKtot   =     378.7155  EPtot      =   -2138.9920
 BOND   =       0.0000  ANGLE   =       0.0000  DIHED      =       0.0000
 1-4 NB =       0.0000  1-4 EEL =       0.0000  VDWAALS    =     382.2532
 EELEC  =   -2521.2452  EHBOND  =       0.0000  CONSTRAINT =       0.0000
 EKCMT  =     188.5469  VIRIAL  =     223.4991  VOLUME     =    6590.5648
                                                Density    =       0.9805
 Ewald error estimate:   0.3170E-03
 ------------------------------------------------------------------------------

check COM velocity, temp:        0.000000     0.00(Removed)

 NSTEP =  49000 TIME(PS) =   198.000  TEMP(K) =   299.24  PRESS =  -525.3
 Etot   =   -1759.6493  EKtot   =     384.4367  EPtot      =   -2144.0860
 BOND   =       0.0000  ANGLE   =       0.0000  DIHED      =       0.0000
 1-4 NB =       0.0000  1-4 EEL =       0.0000  VDWAALS    =     376.4080
 EELEC  =   -2520.4940  EHBOND  =       0.0000  CONSTRAINT =       0.0000
 EKCMT  =     203.0296  VIRIAL  =     279.0381  VOLUME     =    6701.2630
                                                Density    =       0.9643
 Ewald error estimate:   0.1610E-03
 ------------------------------------------------------------------------------

check COM velocity, temp:        0.000000     0.00(Removed)

 NSTEP =  50000 TIME(PS) =   200.000  TEMP(K) =   293.76  PRESS =   312.2
 Etot   =   -1767.2556  EKtot   =     377.3980  EPtot      =   -2144.6536
 BOND   =       0.0000  ANGLE   =       0.0000  DIHED      =       0.0000
 1-4 NB =       0.0000  1-4 EEL =       0.0000  VDWAALS    =     380.0893
 EELEC  =   -2524.7430  EHBOND  =       0.0000  CONSTRAINT =       0.0000
 EKCMT  =     201.4959  VIRIAL  =     157.8828  VOLUME     =    6470.9946
                                                Density    =       0.9986
 Ewald error estimate:   0.2835E-03
 ------------------------------------------------------------------------------

      A V E R A G E S   O V E R   50000 S T E P S

 NSTEP =  50000 TIME(PS) =   200.000  TEMP(K) =   292.91  PRESS =     0.6
 Etot   =   -1779.4992  EKtot   =     376.3093  EPtot      =   -2155.8085
 BOND   =       0.0000  ANGLE   =       0.0000  DIHED      =       0.0000
 1-4 NB =       0.0000  1-4 EEL =       0.0000  VDWAALS    =     388.3808
 EELEC  =   -2544.1893  EHBOND  =       0.0000  CONSTRAINT =       0.0000
 EKCMT  =     189.6132  VIRIAL  =     189.5298  VOLUME     =    6511.4182
                                                Density    =       0.9926
 Ewald error estimate:   0.5118E-03
 ------------------------------------------------------------------------------

      R M S  F L U C T U A T I O N S

 NSTEP =  50000 TIME(PS) =   200.000  TEMP(K) =    15.21  PRESS =   455.5
 Etot   =      68.4591  EKtot   =      19.5395  EPtot      =      54.5214
 BOND   =       0.0000  ANGLE   =       0.0000  DIHED      =       0.0000
 1-4 NB =       0.0000  1-4 EEL =       0.0000  VDWAALS    =      30.8105
 EELEC  =      82.4982  EHBOND  =       0.0000  CONSTRAINT =       0.0000
 EKCMT  =      12.3305  VIRIAL  =      66.2039  VOLUME     =      93.7072
                                                Density    =       0.0143
 Ewald error estimate:   0.3929E-03
 ------------------------------------------------------------------------------
